EPRI_Ckt7_DER_Project/electricdss-code-r4133-trunk-Distrib-EPRITestCircuits-ckt7/ckt7_EXP_CURRENTS.csv
Element, I1_1, Ang1_1, I1_2, Ang1_2, I1_3, Ang1_3, I1_4, Ang1_4, Iresid1, AngResid1, I2_1, Ang2_1, I2_2, Ang2_2, I2_3, Ang2_3, I2_4, Ang2_4, Iresid2, AngResid2
Vsource.SOURCE,    415.442,   153.39,    415.072,    33.42,    415.426,   -86.55,          0,     0.00, 6.00685E-8,    97.13,    415.442,   -26.61,    415.072,  -146.58,    415.426,    93.45,          0,     0.00, 6.00685E-8,   -82.87
Transformer.SUB1,    138.481,   -26.61,    138.357,  -146.58,    138.475,    93.45,          0,     0.00, 2.57244E-12,    45.00,    1279.01,   123.39,    1276.16,     3.47,     1274.9,  -116.60,    5.18539,   -80.47, 1.64051E-8,    98.83
Transformer.SUB2,    138.481,   -26.61,    138.357,  -146.58,    138.475,    93.45,          0,     0.00, 2.57244E-12,    45.00,    1279.01,   123.39,    1276.16,     3.47,     1274.9,  -116.60,    5.18539,   -80.47, 1.64051E-8,    98.83
Transformer.SUB3,    138.481,   -26.61,    138.357,  -146.58,    138.475,    93.45,          0,     0.00, 2.57244E-12,    45.00,    1279.01,   123.39,    1276.16,     3.47,     1274.9,  -116.60,    5.18539,   -80.47, 1.64051E-8,    98.83
Line.326,          0,     0.00,          0,     0.00,          0,     0.00,          0,     0.00,          0,     0.00, 7.88254E-8,    50.67, 7.88361E-8,    -9.32,          0,     0.00,          0,     0.00, 1.36544E-7,    20.67
Line.333,    273.274,   -44.59,    243.353,  -161.90,    271.154,    75.55,          0,     0.00,    31.3433,    -8.95,    273.274,   135.41,    243.353,    18.10,    271.154,  -104.45,          0,     0.00,    31.3433,   171.05
Line.335,          0,     0.00,          0,     0.00,          0,     0.00,          0,     0.00,          0,     0.00, 7.88254E-8,    50.67, 7.88361E-8,    -9.32,          0,     0.00,          0,     0.00, 1.36544E-7,    20.67
Line.150394,    2.56318,   115.09,    2.56385,    -4.93,    2.56298,  -124.93,          0,     0.00, 2.56708E-9,   -57.03,    2.56318,   -64.91,    2.56385,   175.07,    2.56298,    55.07,          0,     0.00, 1.97906E-9,   118.07
Line.157109,     269.72,   -44.31,    239.797,  -161.54,    267.487,    75.84,          0,     0.00,    31.3662,    -9.14,     269.72,   135.69,    239.797,    18.46,    267.487,  -104.16,          0,     0.00,    31.3662,   170.86
Line.157115,     269.72,   -44.31,    238.031,  -161.36,    267.487,    75.84,          0,     0.00,     33.282,    -8.88,     269.72,   135.69,    238.031,    18.64,    267.487,  -104.16,          0,     0.00,     33.282,   171.12
Line.157116,  0.0462419,  -110.16,  7.5039E-8,   -69.89, 7.48676E-8,   170.08,          0,     0.00,   0.046242,  -110.16,   0.046242,    69.84, 3.63798E-12,    90.00, 3.63798E-11,    53.13,          0,     0.00,   0.046242,    69.84
Line.157118,    21.2326,   -65.40,    21.3933,   174.60,    21.4795,    54.60,          0,     0.00,   0.214526,    94.17,    21.2326,   114.60,    21.3933,    -5.40,    21.4795,  -125.40,          0,     0.00,   0.214526,   -85.83
Line.157119,    269.701,   -44.30,     236.84,  -161.23,    267.487,    75.84,          0,     0.00,    34.5906,    -8.66,    269.701,   135.70,     236.84,    18.77,    267.487,  -104.16,          0,     0.00,    34.5906,   171.34
Line.157120,    20.0028,   -65.39,    20.0906,   174.60,    20.1269,    54.58,          0,     0.00,   0.107252,    94.21,    20.0028,   114.61,    20.0906,    -5.40,    20.1269,  -125.42,          0,     0.00,   0.107252,   -85.79
Line.157121,    5.11572,   114.82,    5.12027,    -5.22,    5.11511,  -125.24,          0,     0.00,  2.2506E-8,   -35.95,    5.11572,   -65.18,    5.12027,   174.78,    5.11511,    54.76,          0,     0.00, 2.24118E-8,   143.87
Line.157122,    13.6572,   -65.47,    13.6677,   174.52,    13.6594,    54.49,          0,     0.00, 6.05333E-8,   144.04,    13.6572,   114.53,    13.6677,    -5.48,    13.6594,  -125.51,          0,     0.00, 6.09003E-8,   -35.95
Line.157123,    5.11572,   -65.18,    5.12027,   174.78,    5.11511,    54.76,          0,     0.00, 2.30912E-8,   144.08,    5.11572,   114.82,    5.12027,    -5.22,    5.11511,  -125.24,          0,     0.00, 2.30912E-8,   -35.92
Line.157124,    16.2453,   114.66,    16.2602,    -5.38,    16.2428,  -125.41,          0,     0.00, 8.47237E-8,   -36.44,    16.2453,   -65.34,    16.2602,   174.62,    16.2428,    54.59,          0,     0.00,  8.4048E-8,   143.52
Line.157126,    16.2453,   -65.34,    16.2602,   174.62,    16.2428,    54.59,          0,     0.00, 8.53228E-8,   143.91,    16.2453,   114.66,    16.2602,    -5.38,    16.2428,  -125.41,          0,     0.00, 8.53228E-8,   -36.09
Line.157127,    13.6845,   -65.35,    13.6974,   174.61,    13.6818,    54.58,          0,     0.00, 7.35557E-8,   143.94,    13.6845,   114.65,    13.6974,    -5.39,    13.6818,  -125.42,          0,     0.00, 7.35557E-8,   -36.06
Line.157128,    13.6432,   -65.12,    13.6559,   174.83,    13.6404,    54.81,          0,     0.00, 6.19045E-8,   143.91,    13.6432,   114.88,    13.6559,    -5.17,    13.6404,  -125.19,          0,     0.00, 6.19045E-8,   -36.09
Line.157129,    8.52434,   -64.96,    8.53297,   174.98,    8.52104,    54.96,          0,     0.00, 3.88007E-8,   143.98,    8.52434,   115.04,    8.53297,    -5.02,    8.52104,  -125.04,          0,     0.00, 3.88007E-8,   -36.02
Line.157130,    5.11894,   114.61,    5.12302,    -5.41,    5.11943,  -125.44,          0,     0.00, 2.32641E-8,   -36.24,    5.11894,   -65.39,    5.12302,   174.59,    5.11943,    54.56,          0,     0.00, 2.32641E-8,   143.76
Line.157131,  0.0683146,  -118.00,   0.068372,   122.03,  0.0683741,     1.97,          0,     0.00, 1.16404E-8,   143.91,  0.0683146,    62.00,   0.068372,   -57.97,  0.0683741,  -178.03,          0,     0.00, 1.16404E-8,   -36.09
Line.157132,    235.116,   -41.02,     199.64,  -156.35,    232.731,    79.21,          0,     0.00,    38.5228,    -8.59,    235.116,   138.98,     199.64,    23.65,    232.731,  -100.79,          0,     0.00,    38.5228,   171.41
Line.157133,    233.997,   -40.89,     199.64,  -156.35,    232.731,    79.21,          0,     0.00,    37.8626,    -7.04,    233.997,   139.11,     199.64,    23.65,    232.731,  -100.79,          0,     0.00,    37.8626,   172.96
Line.157136,    12.7709,   -64.64,    12.7873,   175.27,    12.7616,    55.26,          0,     0.00, 6.90378E-8,   143.71,    12.7709,   115.36,    12.7873,    -4.73,    12.7616,  -124.74,          0,     0.00, 6.87124E-8,   -36.25
Line.157137,    12.7709,   115.36,    12.7873,    -4.73,    12.7616,  -124.74,          0,     0.00, 6.91304E-8,   -36.80,    12.7709,   -64.64,    12.7873,   175.27,    12.7616,    55.26,          0,     0.00, 6.91304E-8,   143.20
Line.157138,    12.7709,   115.36,    12.7873,    -4.73,    12.7616,  -124.74,          0,     0.00, 6.85039E-8,   -36.22,    12.7709,   -64.64,    12.7873,   175.27,    12.7616,    55.26,          0,     0.00, 6.81256E-8,   143.79
Line.157142,    233.997,   -40.89,    199.633,  -156.35,    232.731,    79.21,          0,     0.00,    37.8804,    -7.06,    233.997,   139.11,    199.633,    23.65,    232.731,  -100.79,          0,     0.00,    37.8804,   172.94
Line.157143,     218.96,   -39.14,    184.724,  -153.80,    217.603,    81.01,          0,     0.00,    38.3989,    -7.21,     218.96,   140.86,    184.724,    26.20,    217.603,   -98.99,          0,     0.00,    38.3989,   172.79
Line.157144,    214.381,   -38.53,     180.37,  -152.93,    213.032,    81.62,          0,     0.00,    38.4328,    -7.26,    214.381,   141.47,     180.37,    27.07,    213.032,   -98.38,          0,     0.00,    38.4328,   172.74
Line.157145,     218.96,   -39.14,    184.713,  -153.79,    217.603,    81.01,          0,     0.00,    38.4328,    -7.26,     218.96,   140.86,    184.713,    26.21,    217.603,   -98.99,          0,     0.00,    38.4328,   172.74
Line.157147,    2.56107,   114.48,    2.56337,    -5.53,    2.56171,  -125.57,          0,     0.00, 1.50169E-8,   -35.89,    2.56107,   -65.52,    2.56337,   174.47,    2.56171,    54.43,          0,     0.00, 1.50169E-8,   144.11
Line.157148,    5.12084,   114.57,    5.12563,    -5.45,    5.12165,  -125.49,          0,     0.00, 2.97237E-8,   -34.47,    5.12084,   -65.43,    5.12563,   174.55,    5.12165,    54.51,          0,     0.00, 2.97237E-8,   145.53
Line.157149,    5.12084,   114.57,    5.12563,    -5.45,    5.12165,  -125.49,          0,     0.00, 3.04616E-8,   -35.05,    5.12083,   -65.43,    5.12563,   174.55,    5.12165,    54.51,          0,     0.00, 3.01528E-8,   144.94
Line.157150,    2.06269,   -65.30,   0.264761,   173.62,   0.274614,    53.84,          0,     0.00,    1.79233,   -64.88,    2.06269,   114.70,   0.264761,    -6.38,   0.274614,  -126.16,          0,     0.00,    1.79233,   115.12
Line.157151,     1.8126,   -65.11, 2.69221E-8,   -70.14, 2.67812E-8,   169.92,          0,     0.00,     1.8126,   -65.11,     1.8126,   114.89, 5.12232E-11,    16.50, 2.91038E-11,   180.00,          0,     0.00,     1.8126,   114.89
Line.157152,    212.542,   -38.28,    180.149,  -152.89,    212.789,    81.66,          0,     0.00,    37.5037,    -4.94,    212.542,   141.72,    180.149,    27.11,    212.789,   -98.34,          0,     0.00,    37.5037,   175.06
Line.157153,    12.2305,   114.57,          0,     0.00,          0,     0.00,          0,     0.00,    12.2305,   114.57,    12.2305,   -65.43,          0,     0.00,          0,     0.00,          0,     0.00,    12.2305,   -65.43
Line.157155,    12.2305,   -65.43,          0,     0.00,          0,     0.00,          0,     0.00,    12.2305,   -65.43,    12.2305,   114.57,          0,     0.00,          0,     0.00,          0,     0.00,    12.2305,   114.57
Line.157156,     7.3325,   -65.32,          0,     0.00,          0,     0.00,          0,     0.00,     7.3325,   -65.32,     7.3325,   114.68,          0,     0.00,          0,     0.00,          0,     0.00,     7.3325,   114.68
Line.157157,    4.88829,   -65.32,          0,     0.00,          0,     0.00,          0,     0.00,    4.88829,   -65.32,    4.88829,   114.68,          0,     0.00,          0,     0.00,          0,     0.00,    4.88829,   114.68
Line.157158,    2.44421,   -65.32,          0,     0.00,          0,     0.00,          0,     0.00,    2.44421,   -65.32,    2.44421,   114.68,          0,     0.00,          0,     0.00,          0,     0.00,    2.44421,   114.68
Line.157159,    2.44408,   -65.31,          0,     0.00,          0,     0.00,          0,     0.00,    2.44408,   -65.31,    2.44408,   114.69,          0,     0.00,          0,     0.00,          0,     0.00,    2.44408,   114.69
Line.157160,    201.736,   -36.69,    180.149,  -152.89,    212.789,    81.66,          0,     0.00,    33.2288,    13.74,    201.736,   143.31,    180.149,    27.11,    212.789,   -98.34,          0,     0.00,    33.2288,  -166.26
Line.157163,    2.55941,   -65.46,    2.56231,   174.50,    2.55963,    54.46,          0,     0.00, 1.75193E-8,   149.00,    2.55941,   114.54,    2.56231,    -5.50,    2.55963,  -125.54,          0,     0.00, 1.74426E-8,   -32.05
Line.157165,    2.55941,   -65.46,    2.56231,   174.50,    2.55963,    54.46,          0,     0.00, 1.75213E-8,   147.95,    2.55941,   114.54,    2.56231,    -5.50,    2.55963,  -125.54,          0,     0.00, 1.76882E-8,   -32.38
Line.157167,    2.55941,   -65.46,    2.56231,   174.50,    2.55963,    54.46,          0,     0.00,  1.8001E-8,   148.55,    2.55941,   114.54,    2.56231,    -5.50,    2.55963,  -125.54,          0,     0.00,  1.8001E-8,   -31.45
Line.157168,    192.068,   -35.12,    170.879,  -150.90,    202.973,    83.07,          0,     0.00,    33.2288,    13.74,    192.068,   144.88,    170.879,    29.10,    202.973,   -96.93,          0,     0.00,    33.2288,  -166.26
Line.174945, 2.73159E-6,    49.00, 2.74344E-6,   -70.65, 2.72211E-6,   169.18,          0,     0.00, 3.18604E-8,   -29.95, 8.91409E-12,    84.14, 8.7738E-12,    58.78, 1.09518E-11,  -175.24,          0,     0.00, 1.63961E-11,   109.44
Line.174947,    5.10629,   -65.46,    5.11329,   174.46,    5.10326,    54.43,          0,     0.00, 5.08101E-8,   149.48,    5.10629,   114.54,    5.11329,    -5.54,    5.10326,  -125.57,          0,     0.00, 5.14299E-8,   -30.41
Line.174948,    18.3327,   -65.78,    19.4981,   174.23,    16.1316,    54.70,          0,     0.00,    3.01433,  -148.03,    18.3327,   114.22,    19.4981,    -5.77,    16.1316,  -125.30,          0,     0.00,    3.01433,    31.97
Line.174950,    28.5854,   -65.77,    31.6824,   174.25,    26.3781,    54.48,          0,     0.00,    4.68867,  -162.31,    28.5854,   114.23,    31.6824,    -5.75,    26.3781,  -125.52,          0,     0.00,    4.68867,    17.69
Line.174951,    5.10629,   -65.46,    5.11329,   174.46,    5.10326,    54.43,          0,     0.00,   5.013E-8,   149.20,    5.10629,   114.54,    5.11329,    -5.54,    5.10326,  -125.57,          0,     0.00, 5.02147E-8,   -30.90
Line.174952,    23.4792,   -65.84,    26.5691,   174.21,    21.2749,    54.49,          0,     0.00,    4.68867,  -162.31,    23.4792,   114.16,    26.5691,    -5.79,    21.2749,  -125.51,          0,     0.00,    4.68867,    17.69
Line.174953,    23.4792,   -65.84,    26.5691,   174.21,    21.2749,    54.49,          0,     0.00,    4.68867,  -162.31,    23.4792,   114.16,    26.5691,    -5.79,    21.2749,  -125.51,          0,     0.00,    4.68867,    17.69
Line.174954,    23.4792,   -65.84,    24.6518,   174.16,    21.2749,    54.49,          0,     0.00,    3.01433,  -148.03,    23.4792,   114.16,    24.6518,    -5.84,    21.2749,  -125.51,          0,     0.00,    3.01433,    31.97
Line.174955,    18.3327,   -65.78,    19.4981,   174.23,    16.1316,    54.70,          0,     0.00,    3.01433,  -148.03,    18.3327,   114.22,    19.4981,    -5.77,    16.1316,  -125.30,          0,     0.00,    3.01433,    31.97
Line.174956,    5.10629,   -65.46,    5.11329,   174.46,    5.10326,    54.43,          0,     0.00, 5.09393E-8,   150.08,    5.10629,   114.54,    5.11329,    -5.54,    5.10326,  -125.57,          0,     0.00, 5.09393E-8,   -29.92
Line.174957,    5.14658,   -66.05,    5.15372,   173.87,    5.14369,    53.84,          0,     0.00,  7.2041E-8,   150.04,    5.14658,   113.95,    5.15372,    -6.13,    5.14369,  -126.16,          0,     0.00, 7.36391E-8,   -29.93
Line.174958,  0.0674957,  -118.76,  0.0676369,   121.23,  0.0675613,     1.13,          0,     0.00, 2.45426E-8,   149.42,  0.0674957,    61.23,  0.0676369,   -58.77,  0.0675614,  -178.87,          0,     0.00, 2.47856E-8,   -29.94
Line.174959,  0.0674956,  -118.76,  0.0676368,   121.23,  0.0675613,     1.13,          0,     0.00, 2.33822E-8,   150.43,  0.0674957,    61.24,  0.0676369,   -58.77,  0.0675613,  -178.87,          0,     0.00, 2.40338E-8,   -29.57
Line.174960,  0.0674957,  -118.77,  0.0676369,   121.23,  0.0675614,     1.13,          0,     0.00, 2.51952E-8,   150.37,  0.0674957,    61.23,  0.0676369,   -58.77,  0.0675614,  -178.87,          0,     0.00, 2.51952E-8,   -29.63
Line.174961,    18.3327,   -65.78,          0,     0.00,          0,     0.00,          0,     0.00,    18.3327,   -65.78,    18.3327,   114.22,          0,     0.00,          0,     0.00,          0,     0.00,    18.3327,   114.22
Line.174962,    14.6591,   -65.74,          0,     0.00,          0,     0.00,          0,     0.00,    14.6591,   -65.74,    14.6591,   114.26,          0,     0.00,          0,     0.00,          0,     0.00,    14.6591,   114.26
Line.174963,    12.2189,   -65.78,          0,     0.00,          0,     0.00,          0,     0.00,    12.2189,   -65.78,    12.2189,   114.22,          0,     0.00,          0,     0.00,          0,     0.00,    12.2189,   114.22
Line.174964,    7.32911,   -65.73,          0,     0.00,          0,     0.00,          0,     0.00,    7.32911,   -65.73,    7.32911,   114.27,          0,     0.00,          0,     0.00,          0,     0.00,    7.32911,   114.27
Line.174965,    4.88929,   -65.82,          0,     0.00,          0,     0.00,          0,     0.00,    4.88929,   -65.82,    4.88929,   114.18,          0,     0.00,          0,     0.00,          0,     0.00,    4.88929,   114.18
Line.174966,    16.1316,    54.70,          0,     0.00,          0,     0.00,          0,     0.00,    16.1316,    54.70,    16.1316,  -125.30,          0,     0.00,          0,     0.00,          0,     0.00,    16.1316,  -125.30
Line.174967,    4.03956,    54.53,          0,     0.00,          0,     0.00,          0,     0.00,    4.03956,    54.53,    4.03956,  -125.47,          0,     0.00,          0,     0.00,          0,     0.00,    4.03956,  -125.47
Line.174968,    4.03973,    54.52,          0,     0.00,          0,     0.00,          0,     0.00,    4.03973,    54.52,    4.03973,  -125.48,          0,     0.00,          0,     0.00,          0,     0.00,    4.03973,  -125.48
Line.174969,    8.05239,    54.87,          0,     0.00,          0,     0.00,          0,     0.00,    8.05239,    54.87,    8.05239,  -125.13,          0,     0.00,          0,     0.00,          0,     0.00,    8.05239,  -125.13
Line.174970,    5.36822,    54.87,          0,     0.00,          0,     0.00,          0,     0.00,    5.36822,    54.87,    5.36822,  -125.13,          0,     0.00,          0,     0.00,          0,     0.00,    5.36822,  -125.13
Line.174971,    2.68411,    54.87,          0,     0.00,          0,     0.00,          0,     0.00,    2.68411,    54.87,    2.68411,  -125.13,          0,     0.00,          0,     0.00,          0,     0.00,    2.68411,  -125.13
Line.174972,    2.68411,    54.87,          0,     0.00,          0,     0.00,          0,     0.00,    2.68411,    54.87,    2.68411,  -125.13,          0,     0.00,          0,     0.00,          0,     0.00,    2.68411,  -125.13
Line.174973,    19.4981,   174.23,          0,     0.00,          0,     0.00,          0,     0.00,    19.4981,   174.23,    19.4981,    -5.77,          0,     0.00,          0,     0.00,          0,     0.00,    19.4981,    -5.77
Line.174974,    15.6053,   174.21,          0,     0.00,          0,     0.00,          0,     0.00,    15.6053,   174.21,    15.6053,    -5.79,          0,     0.00,          0,     0.00,          0,     0.00,    15.6053,    -5.79
Line.174975,    11.7119,   174.19,          0,     0.00,          0,     0.00,          0,     0.00,    11.7119,   174.19,    11.7119,    -5.81,          0,     0.00,          0,     0.00,          0,     0.00,    11.7119,    -5.81
Line.174976,    2.58624,   174.68,          0,     0.00,          0,     0.00,          0,     0.00,    2.58624,   174.68,    2.58624,    -5.32,          0,     0.00,          0,     0.00,          0,     0.00,    2.58624,    -5.32
Line.174977,    9.12575,   174.05,          0,     0.00,          0,     0.00,          0,     0.00,    9.12575,   174.05,    9.12575,    -5.95,          0,     0.00,          0,     0.00,          0,     0.00,    9.12575,    -5.95
Line.174978,    3.94383,   173.58,          0,     0.00,          0,     0.00,          0,     0.00,    3.94383,   173.58,    3.94383,    -6.42,          0,     0.00,          0,     0.00,          0,     0.00,    3.94383,    -6.42
Line.174979,    0.07072,   129.66,          0,     0.00,          0,     0.00,          0,     0.00,    0.07072,   129.66,    0.07072,   -50.34,          0,     0.00,          0,     0.00,          0,     0.00,    0.07072,   -50.34
Line.174980,    28.5854,   114.23,    31.6824,    -5.75,      26.42,  -125.61,          0,     0.00,    4.63131,    17.77,    28.5854,   -65.77,    31.6824,   174.25,      26.42,    54.39,          0,     0.00,    4.63131,  -162.23
Line.174981, 5.09912E-8,    49.24, 5.08688E-8,   -70.69, 5.04385E-8,   169.49,          0,     0.00, 5.56979E-10,   -19.86, 2.34643E-10,  -119.74, 1.97927E-10,  -107.10, 3.50457E-10,   131.63,          0,     0.00, 4.27985E-10,  -162.18
Line.174982,    28.5854,   114.23,    31.6824,    -5.75,      26.42,  -125.61,          0,     0.00,    4.63131,    17.77,    28.5854,   -65.77,    31.6824,   174.25,      26.42,    54.39,          0,     0.00,    4.63131,  -162.23
Line.174983,     104.14,   142.76,    109.144,    21.27,    103.134,   -97.10,          0,     0.00,     6.0545,     2.57,     104.14,   -37.24,    109.144,  -158.73,    103.134,    82.90,          0,     0.00,     6.0545,  -177.43
Line.174984, 2.29625E-7,    49.04,  2.3068E-7,   -70.60, 2.28723E-7,   169.21,          0,     0.00,  2.8277E-9,   -28.97, 7.00016E-11,  -114.57, 1.19998E-10,   104.04, 7.27596E-12,   -90.00,          0,     0.00, 7.38653E-11,   142.00
Line.174987,    80.1975,   -27.44,    82.1888,  -148.65,    80.9045,    91.86,          0,     0.00,    1.99734,   145.10,    80.1975,   152.56,    82.1888,    31.35,    80.9045,   -88.14,          0,     0.00,    1.99734,   -34.90
Line.174988,    48.3605,    16.79,    48.7654,  -106.09,    48.3661,   135.35,          0,     0.00,    1.96142,   145.88,    48.3605,  -163.21,    48.7654,    73.91,    48.3661,   -44.65,          0,     0.00,    1.96142,   -34.12
Line.174989,    7.58862,   -65.96,    5.15768,   173.65,    5.14872,    53.62,          0,     0.00,    2.43805,   -65.27,    7.58862,   114.04,    5.15768,    -6.35,    5.14872,  -126.38,          0,     0.00,    2.43805,   114.73
Line.174990,    56.6721,   -63.96,    56.8197,   175.87,    56.6313,    55.86,          0,     0.00,  0.0447662,   108.86,    56.6721,   116.04,    56.8197,    -4.13,    56.6313,  -124.14,          0,     0.00,  0.0447662,   -71.14
Line.174991, 7.45637E-8,    49.08, 7.49421E-8,   -70.63, 7.45405E-8,   169.22,          0,     0.00, 6.23571E-10,   -41.69, 5.82077E-11,     0.00, 2.32033E-10,    41.19, 1.19998E-10,  -165.96,          0,     0.00, 1.69859E-10,    46.74
Line.174994,    20.1663,    54.74,          0,     0.00,          0,     0.00,          0,     0.00,    20.1663,    54.74,    20.1663,  -125.26,          0,     0.00,          0,     0.00,          0,     0.00,    20.1663,  -125.26
Line.174995,     104.14,   142.76,    109.144,    21.27,    103.134,   -97.10,          0,     0.00,     6.0545,     2.57,     104.14,   -37.24,    109.144,  -158.73,    103.134,    82.90,          0,     0.00,     6.0545,  -177.43
Line.174998,    119.478,   139.02,    124.656,    17.84,    118.416,  -100.92,          0,     0.00,     6.0545,     2.57,    119.478,   -40.98,    124.656,  -162.16,    118.416,    79.08,          0,     0.00,     6.0545,  -177.43
Line.174999,    119.927,   138.91,    124.656,    17.84,    118.416,  -100.92,          0,     0.00,    5.89176,     7.05,    119.927,   -41.09,    124.656,  -162.16,    118.416,    79.08,          0,     0.00,    5.89176,  -172.95
Line.175000,    20.1663,    54.74,          0,     0.00,          0,     0.00,          0,     0.00,    20.1663,    54.74,    20.1663,  -125.26,          0,     0.00,          0,     0.00,          0,     0.00,    20.1663,  -125.26
Line.175001,  0.0675699,    61.26,  0.0677181,   -58.75,  0.0676354,  -178.86,          0,     0.00, 2.69588E-8,   -29.53,  0.0675698,  -118.74,   0.067718,   121.25,  0.0676354,     1.14,          0,     0.00, 2.67716E-8,   150.68
Line.175002,    7.58862,   -65.96,    5.15768,   173.65,    5.14872,    53.62,          0,     0.00,    2.43805,   -65.27,    7.58862,   114.04,    5.15768,    -6.35,    5.14872,  -126.38,          0,     0.00,    2.43805,   114.73
Line.175003,    5.15083,   -66.28,    5.15768,   173.65,    5.14872,    53.62,          0,     0.00, 7.78368E-8,   151.03,    5.15083,   113.72,    5.15768,    -6.35,    5.14872,  -126.38,          0,     0.00, 7.88753E-8,   -28.96
Line.175004,  0.0675698,  -118.74,   0.067718,   121.25,  0.0676353,     1.14,          0,     0.00,  2.5961E-8,   151.33,  0.0675698,    61.26,   0.067718,   -58.75,  0.0676354,  -178.86,          0,     0.00, 2.63791E-8,   -28.75
Line.175005,  0.0675699,  -118.74,  0.0677181,   121.25,  0.0676354,     1.14,          0,     0.00, 2.66698E-8,   150.30,  0.0675699,    61.26,  0.0677181,   -58.75,  0.0676354,  -178.86,          0,     0.00, 2.66698E-8,   -29.70
Line.175006,    14.8089,    54.66,          0,     0.00,          0,     0.00,          0,     0.00,    14.8089,    54.66,    14.8089,  -125.34,          0,     0.00,          0,     0.00,          0,     0.00,    14.8089,  -125.34
Line.175007,    130.007,   136.89,    124.656,    17.84,    137.041,  -104.39,          0,     0.00,    11.7793,  -151.05,    130.007,   -43.11,    124.656,  -162.16,    137.041,    75.61,          0,     0.00,    11.7793,    28.95
Line.175008,    138.456,   159.36,    134.111,    41.20,    143.637,   -82.89,          0,     0.00,    12.1334,  -153.63,    138.456,   -20.64,    134.111,  -138.80,    143.637,    97.11,          0,     0.00,    12.1334,    26.37
Line.175009,    14.8089,    54.66,          0,     0.00,          0,     0.00,          0,     0.00,    14.8089,    54.66,    14.8089,  -125.34,          0,     0.00,          0,     0.00,          0,     0.00,    14.8089,  -125.34
Line.175010,    14.6821,   -65.80,          0,     0.00,          0,     0.00,          0,     0.00,    14.6821,   -65.80,    14.6821,   114.20,          0,     0.00,          0,     0.00,          0,     0.00,    14.6821,   114.20
Line.175011,     2.4408,   -65.50,          0,     0.00,          0,     0.00,          0,     0.00,     2.4408,   -65.50,     2.4408,   114.50,          0,     0.00,          0,     0.00,          0,     0.00,     2.4408,   114.50
Line.175013,    12.2413,   -65.86,          0,     0.00,          0,     0.00,          0,     0.00,    12.2413,   -65.86,    12.2413,   114.14,          0,     0.00,          0,     0.00,          0,     0.00,    12.2413,   114.14
Line.175014,    3.67499,   -65.90,          0,     0.00,          0,     0.00,          0,     0.00,    3.67499,   -65.90,    3.67499,   114.10,          0,     0.00,          0,     0.00,          0,     0.00,    3.67499,   114.10
Line.175015,    8.56633,   -65.84,          0,     0.00,          0,     0.00,          0,     0.00,    8.56633,   -65.84,    8.56633,   114.16,          0,     0.00,          0,     0.00,          0,     0.00,    8.56633,   114.16
Line.175016,    3.67498,   -65.90,          0,     0.00,          0,     0.00,          0,     0.00,    3.67498,   -65.90,    3.67498,   114.10,          0,     0.00,          0,     0.00,          0,     0.00,    3.67498,   114.10
Line.175017,    4.89135,   -65.79,          0,     0.00,          0,     0.00,          0,     0.00,    4.89135,   -65.79,    4.89135,   114.21,          0,     0.00,          0,     0.00,          0,     0.00,    4.89135,   114.21
Line.175018,    2.44084,   114.46,          0,     0.00,          0,     0.00,          0,     0.00,    2.44084,   114.46,    2.44084,   -65.54,          0,     0.00,          0,     0.00,          0,     0.00,    2.44084,   -65.54
Line.175019,    3.67507,   -65.94,          0,     0.00,          0,     0.00,          0,     0.00,    3.67507,   -65.94,    3.67507,   114.06,          0,     0.00,          0,     0.00,          0,     0.00,    3.67507,   114.06
Line.175020,    6.11587,   114.22,          0,     0.00,          0,     0.00,          0,     0.00,    6.11587,   114.22,    6.11587,   -65.78,          0,     0.00,          0,     0.00,          0,     0.00,    6.11587,   -65.78
Line.175021,    11.0072,   114.20,          0,     0.00,          0,     0.00,          0,     0.00,    11.0072,   114.20,    11.0072,   -65.80,          0,     0.00,          0,     0.00,          0,     0.00,    11.0072,   -65.80
Line.175022,    14.8089,    54.66,          0,     0.00,          0,     0.00,          0,     0.00,    14.8089,    54.66,    14.8089,  -125.34,          0,     0.00,          0,     0.00,          0,     0.00,    14.8089,  -125.34
Line.175023,    20.1663,    54.74,          0,     0.00,          0,     0.00,          0,     0.00,    20.1663,    54.74,    20.1663,  -125.26,          0,     0.00,          0,     0.00,          0,     0.00,    20.1663,  -125.26
Line.175024,    14.7875,    54.76,          0,     0.00,          0,     0.00,          0,     0.00,    14.7875,    54.76,    14.7875,  -125.24,          0,     0.00,          0,     0.00,          0,     0.00,    14.7875,  -125.24
Line.175025,    10.7472,    54.82,          0,     0.00,          0,     0.00,          0,     0.00,    10.7472,    54.82,    10.7472,  -125.18,          0,     0.00,          0,     0.00,          0,     0.00,    10.7472,  -125.18
Line.175026,    5.36844,    54.98,          0,     0.00,          0,     0.00,          0,     0.00,    5.36844,    54.98,    5.36844,  -125.02,          0,     0.00,          0,     0.00,          0,     0.00,    5.36844,  -125.02
Line.175027,    2.68406,    55.00,          0,     0.00,          0,     0.00,          0,     0.00,    2.68406,    55.00,    2.68406,  -125.00,          0,     0.00,          0,     0.00,          0,     0.00,    2.68406,  -125.00
Line.175029,    13.4594,  -125.34,          0,     0.00,          0,     0.00,          0,     0.00,    13.4594,  -125.34,    13.4594,    54.66,          0,     0.00,          0,     0.00,          0,     0.00,    13.4594,    54.66
Line.175030,    13.4594,    54.66,          0,     0.00,          0,     0.00,          0,     0.00,    13.4594,    54.66,    13.4594,  -125.34,          0,     0.00,          0,     0.00,          0,     0.00,    13.4594,  -125.34
Line.175031,    5.37856,    54.72,          0,     0.00,          0,     0.00,          0,     0.00,    5.37856,    54.72,    5.37856,  -125.28,          0,     0.00,          0,     0.00,          0,     0.00,    5.37856,  -125.28
Line.175032,    8.08089,    54.62,          0,     0.00,          0,     0.00,          0,     0.00,    8.08089,    54.62,    8.08089,  -125.38,          0,     0.00,          0,     0.00,          0,     0.00,    8.08089,  -125.38
Line.175033,     4.0404,    54.62,          0,     0.00,          0,     0.00,          0,     0.00,     4.0404,    54.62,     4.0404,  -125.38,          0,     0.00,          0,     0.00,          0,     0.00,     4.0404,  -125.38
Line.175034,     19.865,   113.24,    18.7531,    -6.93,    17.4115,  -127.07,          0,     0.00,    2.11461,    82.37,     19.865,   -66.76,    18.7531,   173.07,    17.4115,    52.93,          0,     0.00,    2.11461,   -97.63
Line.175035,   0.676828,  -118.21,   0.678306,   121.78,   0.677492,     1.67,          0,     0.00, 2.61645E-7,   150.18,   0.676828,    61.79,   0.678306,   -58.22,   0.677492,  -178.33,          0,     0.00, 2.62482E-7,   -29.83
Line.175036,    17.0099,   -65.16,    17.0358,   174.73,    16.9957,    54.71,          0,     0.00, 1.73889E-7,   150.15,    17.0099,   114.84,    17.0358,    -5.27,    16.9957,  -125.29,          0,     0.00, 1.74264E-7,   -29.76
Line.175037,    149.173,   155.36,    134.111,    41.20,    154.887,   -86.59,          0,     0.00,    25.7788,  -170.90,    149.173,   -24.64,    134.111,  -138.80,    154.887,    93.41,          0,     0.00,    25.7788,     9.10
Line.175038,     19.865,   -66.76,    18.7531,   173.07,    17.4115,    52.93,          0,     0.00,    2.11461,   -97.63,     19.865,   113.24,    18.7531,    -6.93,    17.4115,  -127.07,          0,     0.00,    2.11461,    82.37
Line.175040,   0.676828,  -118.21,   0.678306,   121.78,   0.677492,     1.67,          0,     0.00, 2.62421E-7,   150.17,   0.676828,    61.79,   0.678306,   -58.22,   0.677492,  -178.33,          0,     0.00, 2.62643E-7,   -29.83
Line.175041,    19.4505,   -65.20,    18.3365,   174.72,    16.9957,    54.71,          0,     0.00,    2.11461,   -97.63,    19.4505,   114.80,    18.3365,    -5.28,    16.9957,  -125.29,          0,     0.00,    2.11461,    82.37
Line.175042,    17.0099,   -65.16,    18.3365,   174.72,    16.9957,    54.71,          0,     0.00,    1.30069,   174.52,    17.0099,   114.84,    18.3365,    -5.28,    16.9957,  -125.29,          0,     0.00,    1.30069,    -5.48
Line.175043, 2.22224E-8,    49.06,    1.30069,   174.52, 2.21763E-8,   169.41,          0,     0.00,    1.30069,   174.52, 3.35405E-11,  -139.40,    1.30069,    -5.48, 4.1159E-11,   -45.00,          0,     0.00,    1.30069,    -5.48
Line.175044,    17.0099,   -65.16,    17.0358,   174.73,    16.9957,    54.71,          0,     0.00, 1.74499E-7,   150.30,    17.0099,   114.84,    17.0358,    -5.27,    16.9957,  -125.29,          0,     0.00, 1.74683E-7,   -29.71
Line.175045,    1.30069,   174.52,          0,     0.00,          0,     0.00,          0,     0.00,    1.30069,   174.52,    1.30069,    -5.48,          0,     0.00,          0,     0.00,          0,     0.00,    1.30069,    -5.48
Line.175046, 8.64313E-8,   -70.48,          0,     0.00,          0,     0.00,          0,     0.00, 8.64313E-8,   -70.48, 1.45519E-11,   180.00,          0,     0.00,          0,     0.00,          0,     0.00, 1.45519E-11,   180.00
Line.175047,    17.0099,   -65.16,    17.0358,   174.73,    16.9957,    54.71,          0,     0.00, 1.74616E-7,   150.20,    17.0099,   114.84,    17.0358,    -5.27,    16.9957,  -125.29,          0,     0.00, 1.74616E-7,   -29.80
Line.175048,   0.676828,  -118.21,   0.678306,   121.78,   0.677492,     1.67,          0,     0.00,  2.6256E-7,   150.26,   0.676828,    61.79,   0.678306,   -58.22,   0.677492,  -178.33,          0,     0.00,  2.6256E-7,   -29.74
Line.175049,    164.451,   150.71,    147.291,    35.76,     168.51,   -90.43,          0,     0.00,    25.2512,  -175.50,    164.451,   -29.29,    147.291,  -144.24,     168.51,    89.57,          0,     0.00,    25.2512,     4.50
Line.175051,    33.0029,   -65.51,    29.9223,   174.33,    40.3287,    54.88,          0,     0.00,    9.24064,    39.75,    33.0029,   114.49,    29.9223,    -5.67,    40.3287,  -125.12,          0,     0.00,    9.24064,  -140.25
Line.175052,    55.9174,   -63.92,    56.0375,   175.89,    55.8199,    55.88,          0,     0.00, 5.80218E-7,   151.02,    55.9174,   116.08,    56.0375,    -4.11,    55.8199,  -124.12,          0,     0.00, 5.80902E-7,   -29.05
Line.175053,    56.6721,   -63.96,    56.8197,   175.87,    56.6313,    55.86,          0,     0.00,  0.0447662,   108.86,    56.6721,   116.04,    56.8197,    -4.13,    56.6313,  -124.14,          0,     0.00,  0.0447662,   -71.14
Line.175054,    56.6556,   -63.95,    56.8197,   175.87,    56.6313,    55.86,          0,     0.00,  0.0646564,    96.55,    56.6556,   116.05,    56.8197,    -4.13,    56.6313,  -124.14,          0,     0.00,  0.0646564,   -83.45
Line.175055,    55.9174,   -63.92,    56.0375,   175.89,    55.8199,    55.88,          0,     0.00, 5.77412E-7,   150.94,    55.9174,   116.08,    56.0375,    -4.11,    55.8199,  -124.12,          0,     0.00, 5.80051E-7,   -29.06
Line.175056,    55.9174,   -63.92,    56.0375,   175.89,    55.8199,    55.88,          0,     0.00, 5.80252E-7,   150.97,    55.9174,   116.08,    56.0375,    -4.11,    55.8199,  -124.12,          0,     0.00, 5.80252E-7,   -29.03
Line.175057,     50.814,   -63.78,    50.9267,   176.03,    50.7194,    56.02,          0,     0.00, 5.27767E-7,   151.03,     50.814,   116.22,    50.9267,    -3.97,    50.7194,  -123.98,          0,     0.00, 5.27767E-7,   -28.97
Line.175058,    16.9758,   -64.57,    17.0068,   175.28,    16.9525,    55.26,          0,     0.00,  1.7573E-7,   151.02,    16.9758,   115.43,    17.0068,    -4.72,    16.9525,  -124.74,          0,     0.00,  1.7573E-7,   -28.98
Line.175059,    33.8406,   -63.38,    33.9221,   176.40,    33.7691,    56.39,          0,     0.00, 3.51585E-7,   151.00,    33.8406,   116.62,    33.9221,    -3.60,    33.7691,  -123.61,          0,     0.00, 3.51585E-7,   -29.00
Line.175060,    47.9957,    25.81,    48.1621,  -100.03,    47.8977,   141.46,          0,     0.00,    4.23991,   128.57,    47.9957,  -154.19,    48.1621,    79.97,    47.8977,   -38.54,          0,     0.00,    4.23991,   -51.43
Line.175061,    20.8609,   -66.05,     26.163,   173.98,    24.5679,    54.25,          0,     0.00,     4.8262,   131.46,    20.8609,   113.95,     26.163,    -6.02,    24.5679,  -125.75,          0,     0.00,     4.8262,   -48.54
Line.175062,    20.8609,   -66.05,    26.1457,   174.02,    24.5679,    54.25,          0,     0.00,    4.80311,   131.46,    20.8609,   113.95,    26.1457,    -5.98,    24.5679,  -125.75,          0,     0.00,    4.80311,   -48.54
Line.175063,    20.8438,   -66.00,    26.1457,   174.02,    24.5679,    54.25,          0,     0.00,    4.81484,   131.22,    20.8438,   114.00,    26.1457,    -5.98,    24.5679,  -125.75,          0,     0.00,    4.81484,   -48.78
Line.175064,    20.8438,   -66.00,    26.1457,   174.02,    24.5679,    54.25,          0,     0.00,    4.81484,   131.22,    20.8438,   114.00,    26.1457,    -5.98,    24.5679,  -125.75,          0,     0.00,    4.81484,   -48.78
Line.175065, 1.78261E-7,  -130.96, 1.78978E-7,   109.41, 1.77676E-7,   -10.84,          0,     0.00, 1.98915E-9,   157.19, 2.52118E-7,    49.04, 2.53201E-7,   -70.64,   2.514E-7,   169.16,          0,     0.00,  2.6108E-9,   -28.28
Line.175066,  0.0229989,    72.01,  0.0230922,   -47.63,  0.0229132,  -167.82,          0,     0.00, 0.000266802,    -4.45,  0.0229988,  -107.99,  0.0230921,   132.37,  0.0229131,    12.18,          0,     0.00, 0.000266802,   175.55
Line.175067,  0.0229988,  -107.99,  0.0230921,   132.37,  0.0229131,    12.18,          0,     0.00, 0.000266801,   175.55,  0.0229988,    72.01,  0.0230921,   -47.63,  0.0229131,  -167.82,          0,     0.00, 0.000266801,    -4.45
Line.175068,  0.0229989,  -107.99,  0.0230922,   132.37,  0.0229132,    12.18,          0,     0.00, 0.000266803,   175.55,  0.0229989,    72.01,  0.0230922,   -47.63,  0.0229132,  -167.82,          0,     0.00, 0.000266803,    -4.45
Line.175069, 1.78411E-7,    49.00, 1.79114E-7,   -70.67, 1.77687E-7,   169.14,          0,     0.00, 2.05656E-9,   -26.02, 6.54836E-11,   -90.00, 5.6827E-11,   140.19, 5.82077E-11,     0.00,          0,     0.00, 3.25391E-11,   -63.43
Line.175070, 2.92065E-7,    49.00, 2.92961E-7,   -70.63, 2.90135E-7,   169.19,          0,     0.00, 4.08585E-9,   -22.18, 2.52465E-7,  -130.97, 2.53157E-7,   109.32, 2.50316E-7,   -10.82,          0,     0.00,  3.6755E-9,   159.13
Line.175071,    20.8267,   -65.96,    26.1285,   174.05,    24.5509,    54.29,          0,     0.00,    4.81465,   131.22,    20.8267,   114.04,    26.1285,    -5.95,    24.5509,  -125.71,          0,     0.00,    4.81465,   -48.78
Line.175072,    3.78358,   -65.72,    3.89222,   173.85,    3.90433,    54.39,          0,     0.00,   0.148159,   106.05,    3.78358,   114.28,    3.89222,    -6.15,    3.90433,  -125.61,          0,     0.00,   0.148159,   -73.95
Line.175074,    3.78358,   -65.72,    3.89222,   173.85,    3.90433,    54.39,          0,     0.00,   0.148159,   106.05,    3.78358,   114.28,    3.89222,    -6.15,    3.90433,  -125.61,          0,     0.00,   0.148159,   -73.95
Line.175075,    3.78358,   -65.72,    3.89222,   173.85,    3.90433,    54.39,          0,     0.00,   0.148159,   106.05,    3.78358,   114.28,    3.89222,    -6.15,    3.90433,  -125.61,          0,     0.00,   0.148159,   -73.95
Line.175078, 8.52981E-8,    49.84, 8.57879E-8,   -69.01, 8.43863E-8,   169.19,          0,     0.00, 3.00038E-9,    18.08, 7.52214E-8,  -129.99,  7.6992E-8,   110.43,  7.4889E-8,   -10.75,          0,     0.00, 1.72206E-9,   161.50
Line.175079,    17.0432,   113.99,    22.2363,    -5.91,    20.6466,  -125.73,          0,     0.00,    4.68099,   -48.01,    17.0432,   -66.01,    22.2363,   174.09,    20.6466,    54.27,          0,     0.00,    4.68099,   131.99
Line.175080,    17.0432,   -66.01,    22.2363,   174.09,    20.6466,    54.27,          0,     0.00,    4.68099,   131.99,    17.0432,   113.99,    22.2363,    -5.91,    20.6466,  -125.73,          0,     0.00,    4.68099,   -48.01
Line.175081, 8.56993E-8,  -130.07, 8.78396E-8,   110.66, 8.59708E-8,   -10.34,          0,     0.00, 1.97325E-9,   143.32, 1.00762E-7,    49.83, 1.02943E-7,   -69.50, 1.00903E-7,   169.60,          0,     0.00, 2.18044E-9,   -33.64
Line.175082,    17.0432,   -66.01,    22.2363,   174.09,    20.6466,    54.27,          0,     0.00,    4.68099,   131.99,    17.0432,   113.99,    22.2363,    -5.91,    20.6466,  -125.73,          0,     0.00,    4.68099,   -48.01
Line.175083,    17.0432,   -66.01,    22.2363,   174.09,    20.6466,    54.27,          0,     0.00,    4.68099,   131.99,    17.0432,   113.99,    22.2363,    -5.91,    20.6466,  -125.73,          0,     0.00,    4.68099,   -48.01
Line.175084,    17.0432,   -66.01,    22.2363,   174.09,    20.6466,    54.27,          0,     0.00,    4.68099,   131.99,    17.0432,   113.99,    22.2363,    -5.91,    20.6466,  -125.73,          0,     0.00,    4.68099,   -48.01
Line.175085,    17.0432,   -66.01,    22.2363,   174.09,    20.6296,    54.31,          0,     0.00,    4.69242,   132.23,    17.0432,   113.99,    22.2363,    -5.91,    20.6296,  -125.69,          0,     0.00,    4.69242,   -47.77
Line.175086,    16.3046,   -66.02,    21.4539,   174.07,     19.818,    54.29,          0,     0.00,    4.64037,   132.70,    16.3046,   113.98,    21.4539,    -5.93,     19.818,  -125.71,          0,     0.00,    4.64037,   -47.30
Line.175087,    15.5661,   -66.03,    20.6715,   174.06,    19.0065,    54.28,          0,     0.00,    4.58867,   133.17,    15.5661,   113.97,    20.6715,    -5.94,    19.0065,  -125.72,          0,     0.00,    4.58867,   -46.83
Line.175088,   0.738537,   -65.81,    5.96311,   174.47,   0.811548,    54.70,          0,     0.00,    5.19441,   173.78,   0.738537,   114.19,    5.96311,    -5.53,   0.811548,  -125.30,          0,     0.00,    5.19441,    -6.22
Line.175089, 2.20083E-8,    48.86,    5.18077,   174.47, 2.19924E-8,   169.09,          0,     0.00,    5.18077,   174.47, 7.42005E-11,   101.31,    5.18077,    -5.53, 2.91038E-11,     0.00,          0,     0.00,    5.18077,    -5.53
Line.175090,    2.55696,   -65.74,    2.55974,   174.21,    2.55614,    54.18,          0,     0.00, 2.45415E-8,   154.80,    2.55696,   114.26,    2.55974,    -5.79,    2.55614,  -125.82,          0,     0.00, 2.54647E-8,   -25.31
Line.175091,    14.8275,   -66.04,    14.7087,   173.89,    18.1949,    54.26,          0,     0.00,    3.44149,    53.97,    14.8275,   113.96,    14.7087,    -6.11,    18.1949,  -125.74,          0,     0.00,    3.44149,  -126.03
Line.175092,    2.55696,   -65.74,    2.55974,   174.21,    2.55614,    54.18,          0,     0.00, 2.41219E-8,   154.47,    2.55696,   114.26,    2.55974,    -5.79,    2.55614,  -125.82,          0,     0.00, 2.43702E-8,   -25.41
Line.175093,    12.2706,   -66.11,     12.149,   173.82,    15.6388,    54.27,          0,     0.00,    3.44149,    53.97,    12.2706,   113.89,     12.149,    -6.18,    15.6388,  -125.73,          0,     0.00,    3.44149,  -126.03
Line.175094,    2.55696,   -65.74,    2.55974,   174.21,    2.55614,    54.18,          0,     0.00,  2.5241E-8,   154.61,    2.55696,   114.26,    2.55974,    -5.79,    2.55614,  -125.82,          0,     0.00,  2.5241E-8,   -25.39
Line.175098, 6.65763E-8,    49.00, 6.68411E-8,   -70.68,  6.6306E-8,   169.15,          0,     0.00, 7.56544E-10,   -26.87, 3.04918E-11,   -72.65, 4.60172E-11,    18.43, 2.05795E-11,    45.00,          0,     0.00, 6.73026E-11,     0.00
Line.182901,    11.4512,   114.25,    11.5855,    -6.02,    11.5688,  -125.77,          0,     0.00,   0.170668,   -70.58,    11.4512,   -65.75,    11.5855,   173.98,    11.5688,    54.23,          0,     0.00,   0.170668,   109.42
Line.182907,    11.4512,   114.25,    11.5855,    -6.02,    14.2521,  -125.64,          0,     0.00,    2.78593,  -122.23,    11.4512,   -65.75,    11.5855,   173.98,    14.2521,    54.36,          0,     0.00,    2.78593,    57.77
Line.182908,  0.0878069,  -109.21,  0.0299938,   131.14,  0.0297615,    10.94,          0,     0.00,  0.0580205,  -109.55,   0.087807,    70.79,  0.0299938,   -48.86,  0.0297616,  -169.06,          0,     0.00,  0.0580205,    70.45
Line.182909,     11.515,   113.95,    11.6075,    -6.12,    14.2737,  -125.72,          0,     0.00,    2.72936,  -122.50,     11.515,   -66.05,    11.6075,   173.88,    14.2737,    54.28,          0,     0.00,    2.72936,    57.50
Line.182910,  0.0229717,  -107.99,  0.0230558,   132.37,  0.0228778,    12.17,          0,     0.00, 0.000266461,   178.14,  0.0229718,    72.01,  0.0230558,   -47.63,  0.0228779,  -167.83,          0,     0.00, 0.000266461,    -1.86
Line.182911,    11.4512,   -65.75,    11.5855,   173.98,    11.5688,    54.23,          0,     0.00,   0.170668,   109.42,    11.4512,   114.25,    11.5855,    -6.02,    11.5688,  -125.77,          0,     0.00,   0.170668,   -70.58
Line.182912,    10.2241,   -65.74,    10.2855,   173.92,    10.2201,    54.18,          0,     0.00,  0.0706699,   129.64,    10.2241,   114.26,    10.2855,    -6.08,    10.2201,  -125.82,          0,     0.00,  0.0706699,   -50.36
Line.182913,    1.22704,   -65.83,    1.30005,   174.45,    1.34874,    54.67,          0,     0.00,   0.107168,    96.25,    1.22704,   114.17,    1.30005,    -5.55,    1.34874,  -125.33,          0,     0.00,   0.107168,   -83.75
Line.182914,    5.11094,   -65.79,    5.11639,   174.15,     5.1089,    54.13,          0,     0.00, 5.13211E-8,   155.49,    5.11094,   114.21,    5.11639,    -5.85,     5.1089,  -125.87,          0,     0.00, 5.13211E-8,   -24.51
Line.182915,    5.11319,   -65.69,    5.16916,   173.70,    5.11123,    54.22,          0,     0.00,  0.0706699,   129.64,    5.11319,   114.31,    5.16916,    -6.30,    5.11123,  -125.78,          0,     0.00,  0.0706699,   -50.36
Line.182916,    2.55668,   -65.71,    2.55938,   174.23,    2.55574,    54.21,          0,     0.00, 2.56807E-8,   155.53,    2.55668,   114.29,    2.55938,    -5.77,    2.55574,  -125.79,          0,     0.00, 2.56807E-8,   -24.47
Line.183044,    15.5511,    -5.44,    18.8188,  -125.12,          0,     0.00,          0,     0.00,    17.4956,   -74.57,    15.5511,   174.56,    18.8188,    54.88,          0,     0.00,          0,     0.00,    17.4956,   105.43
Line.183045,    33.0029,   114.49,    14.3714,    -5.92,    21.5099,  -125.12,          0,     0.00,    16.0725,   137.02,    33.0029,   -65.51,    14.3714,   174.08,    21.5099,    54.88,          0,     0.00,    16.0725,   -42.98
Line.183046,    33.0029,   -65.51,    29.9223,   174.33,    40.3287,    54.88,          0,     0.00,    9.24064,    39.75,    33.0029,   114.49,    29.9223,    -5.67,    40.3287,  -125.12,          0,     0.00,    9.24064,  -140.25
Line.183048,    33.0029,   -65.51,    29.9223,   174.33,    40.3287,    54.88,          0,     0.00,    9.24064,    39.75,    33.0029,   114.49,    29.9223,    -5.67,    40.3287,  -125.12,          0,     0.00,    9.24064,  -140.25
Line.184239,    9.18886,   173.78,          0,     0.00,          0,     0.00,          0,     0.00,    9.18886,   173.78,    9.18886,    -6.22,          0,     0.00,          0,     0.00,          0,     0.00,    9.18886,    -6.22
Line.184240,    9.07718,   174.55,          0,     0.00,          0,     0.00,          0,     0.00,    9.07718,   174.55,    9.07718,    -5.45,          0,     0.00,          0,     0.00,          0,     0.00,    9.07718,    -5.45
Line.184241,    3.89429,   174.47,          0,     0.00,          0,     0.00,          0,     0.00,    3.89429,   174.47,    3.89429,    -5.53,          0,     0.00,          0,     0.00,          0,     0.00,    3.89429,    -5.53
...
Line.S_0862099-DA1,    50.4214,   -93.68,     50.423,   146.32,    50.4264,    26.29,          0,     0.00,  0.0272042,   -63.27,    50.4215,    86.32,     50.423,   -33.68,    50.4264,  -153.71,          0,     0.00,  0.0272042,   116.73
Line.S_0862099-DA2,    50.4214,   -93.68,     50.423,   146.32,    50.4264,    26.29,          0,     0.00,  0.0272042,   -63.27,    50.4215,    86.32,     50.423,   -33.68,    50.4264,  -153.71,          0,     0.00,  0.0272042,   116.73
Line.S_0862099-DA3,    50.4214,   -93.68,     50.423,   146.32,    50.4264,    26.29,          0,     0.00,  0.0272042,   -63.27,    50.4215,    86.32,     50.423,   -33.68,    50.4264,  -153.71,          0,     0.00,  0.0272042,   116.73
Line.S_1000663-DA1,    35.9384,   -63.32,          0,     0.00,          0,     0.00,          0,     0.00,    35.9384,   -63.32,    35.9384,   116.68,          0,     0.00,          0,     0.00,          0,     0.00,    35.9384,   116.68
Line.S_1000663-DB1,    38.1109,   176.71,          0,     0.00,          0,     0.00,          0,     0.00,    38.1109,   176.71,    38.1109,    -3.29,          0,     0.00,          0,     0.00,          0,     0.00,    38.1109,    -3.29
Line.S_1000663-DC1,    39.6277,    56.74,          0,     0.00,          0,     0.00,          0,     0.00,    39.6277,    56.74,    39.6277,  -123.26,          0,     0.00,          0,     0.00,          0,     0.00,    39.6277,  -123.26
Line.S_1000252-DB1,    56.3758,   176.60,          0,     0.00,          0,     0.00,          0,     0.00,    56.3758,   176.60,    56.3758,    -3.40,          0,     0.00,          0,     0.00,          0,     0.00,    56.3758,    -3.40
Line.S_1001746-DA1,    100.724,   -93.95,    100.734,   146.08,    100.751,    25.97,          0,     0.00,   0.161912,   -73.62,    100.724,    86.05,    100.734,   -33.92,    100.751,  -154.03,          0,     0.00,   0.161912,   106.38
Line.S_1001746-DA2,    100.724,   -93.95,    100.734,   146.08,    100.751,    25.97,          0,     0.00,   0.161912,   -73.62,    100.724,    86.05,    100.734,   -33.92,    100.751,  -154.03,          0,     0.00,   0.161912,   106.38
Line.S_1001746-DA3,    100.724,   -93.95,    100.734,   146.08,    100.751,    25.97,          0,     0.00,   0.161912,   -73.62,    100.724,    86.05,    100.734,   -33.92,    100.751,  -154.03,          0,     0.00,   0.161912,   106.38
Line.S_1000502-DB1,    114.156,   176.68,          0,     0.00,          0,     0.00,          0,     0.00,    114.156,   176.68,    114.156,    -3.32,          0,     0.00,          0,     0.00,          0,     0.00,    114.156,    -3.32
Line.S_1000824-DA1,    11.9767,   -63.92,          0,     0.00,          0,     0.00,          0,     0.00,    11.9767,   -63.92,    11.9767,   116.08,          0,     0.00,          0,     0.00,          0,     0.00,    11.9767,   116.08
Line.S_1000824-DA2,    11.9767,   -63.92,          0,     0.00,          0,     0.00,          0,     0.00,    11.9767,   -63.92,    11.9767,   116.08,          0,     0.00,          0,     0.00,          0,     0.00,    11.9767,   116.08
Line.S_1000824-DA3,    11.9767,   -63.92,          0,     0.00,          0,     0.00,          0,     0.00,    11.9767,   -63.92,    11.9767,   116.08,          0,     0.00,          0,     0.00,          0,     0.00,    11.9767,   116.08
Line.S_1000824-DB1,    12.7041,   176.17,          0,     0.00,          0,     0.00,          0,     0.00,    12.7041,   176.17,    12.7041,    -3.83,          0,     0.00,          0,     0.00,          0,     0.00,    12.7041,    -3.83
Line.S_1000824-DB2,    12.7041,   176.17,          0,     0.00,          0,     0.00,          0,     0.00,    12.7041,   176.17,    12.7041,    -3.83,          0,     0.00,          0,     0.00,          0,     0.00,    12.7041,    -3.83
Line.S_1000824-DB3,    12.7041,   176.17,          0,     0.00,          0,     0.00,          0,     0.00,    12.7041,   176.17,    12.7041,    -3.83,          0,     0.00,          0,     0.00,          0,     0.00,    12.7041,    -3.83
Line.S_1000824-DC1,    13.2047,    56.25,          0,     0.00,          0,     0.00,          0,     0.00,    13.2047,    56.25,    13.2047,  -123.75,          0,     0.00,          0,     0.00,          0,     0.00,    13.2047,  -123.75
Line.S_1000824-DC2,    13.2047,    56.25,          0,     0.00,          0,     0.00,          0,     0.00,    13.2047,    56.25,    13.2047,  -123.75,          0,     0.00,          0,     0.00,          0,     0.00,    13.2047,  -123.75
Line.S_1000824-DC3,    13.2047,    56.25,          0,     0.00,          0,     0.00,          0,     0.00,    13.2047,    56.25,    13.2047,  -123.75,          0,     0.00,          0,     0.00,          0,     0.00,    13.2047,  -123.75
Line.S_1001745-DA1,    100.722,   -93.94,    100.731,   146.09,    100.749,    25.98,          0,     0.00,   0.161904,   -73.64,    100.722,    86.06,    100.731,   -33.91,    100.749,  -154.02,          0,     0.00,   0.161904,   106.36
Line.S_1001745-DA2,    100.722,   -93.94,    100.731,   146.09,    100.749,    25.98,          0,     0.00,   0.161904,   -73.64,    100.722,    86.06,    100.731,   -33.91,    100.749,  -154.02,          0,     0.00,   0.161904,   106.36
Line.S_1001745-DA3,    100.722,   -93.94,    100.731,   146.09,    100.749,    25.98,          0,     0.00,   0.161904,   -73.64,    100.722,    86.06,    100.731,   -33.91,    100.749,  -154.02,          0,     0.00,   0.161904,   106.36
Line.S_1001329-DA1,      50.39,   -94.10,    50.3924,   145.95,    50.4002,    25.86,          0,     0.00,  0.0622635,   -87.70,      50.39,    85.90,    50.3925,   -34.05,    50.4003,  -154.14,          0,     0.00,  0.0622635,    92.30
Line.S_1001329-DA2,      50.39,   -94.10,    50.3924,   145.95,    50.4002,    25.86,          0,     0.00,  0.0622635,   -87.70,      50.39,    85.90,    50.3925,   -34.05,    50.4003,  -154.14,          0,     0.00,  0.0622635,    92.30
Line.S_1001329-DA3,      50.39,   -94.10,    50.3924,   145.95,    50.4002,    25.86,          0,     0.00,  0.0622635,   -87.70,      50.39,    85.90,    50.3925,   -34.05,    50.4003,  -154.14,          0,     0.00,  0.0622635,    92.30
Line.S_1001359-DA1,    167.647,   -93.74,    167.672,   146.28,    167.704,    26.13,          0,     0.00,   0.364974,   -64.53,    167.647,    86.26,    167.672,   -33.72,    167.704,  -153.87,          0,     0.00,   0.364974,   115.47
Line.S_1001359-DA2,    167.647,   -93.74,    167.672,   146.28,    167.704,    26.13,          0,     0.00,   0.364974,   -64.53,    167.647,    86.26,    167.672,   -33.72,    167.704,  -153.87,          0,     0.00,   0.364974,   115.47
Line.S_1001359-DA3,    167.647,   -93.74,    167.672,   146.28,    167.704,    26.13,          0,     0.00,   0.364974,   -64.53,    167.647,    86.26,    167.672,   -33.72,    167.704,  -153.87,          0,     0.00,   0.364974,   115.47
Line.S_1001330-DA1,    50.3932,   -94.17,    50.3957,   145.88,    50.4035,    25.79,          0,     0.00,  0.0622382,   -87.77,    50.3933,    85.83,    50.3957,   -34.12,    50.4035,  -154.21,          0,     0.00,  0.0622382,    92.23
Line.S_1001330-DA2,    50.3932,   -94.17,    50.3957,   145.88,    50.4035,    25.79,          0,     0.00,  0.0622382,   -87.77,    50.3933,    85.83,    50.3957,   -34.12,    50.4035,  -154.21,          0,     0.00,  0.0622382,    92.23
Line.S_1001330-DA3,    50.3932,   -94.17,    50.3957,   145.88,    50.4035,    25.79,          0,     0.00,  0.0622382,   -87.77,    50.3933,    85.83,    50.3957,   -34.12,    50.4035,  -154.21,          0,     0.00,  0.0622382,    92.23
Line.S_1001330-DA4,    50.3932,   -94.17,    50.3957,   145.88,    50.4035,    25.79,          0,     0.00,  0.0622382,   -87.77,    50.3933,    85.83,    50.3957,   -34.12,    50.4035,  -154.21,          0,     0.00,  0.0622382,    92.23
Line.S_1001330-DA5,    50.3932,   -94.17,    50.3957,   145.88,    50.4035,    25.79,          0,     0.00,  0.0622382,   -87.77,    50.3933,    85.83,    50.3957,   -34.12,    50.4035,  -154.21,          0,     0.00,  0.0622382,    92.23
Line.S_1001330-DA6,    50.3932,   -94.17,    50.3957,   145.88,    50.4035,    25.79,          0,     0.00,  0.0622382,   -87.77,    50.3933,    85.83,    50.3957,   -34.12,    50.4035,  -154.21,          0,     0.00,  0.0622382,    92.23
Line.S_1000672-DA1,    35.9064,   -63.77,          0,     0.00,          0,     0.00,          0,     0.00,    35.9064,   -63.77,    35.9065,   116.23,          0,     0.00,          0,     0.00,          0,     0.00,    35.9065,   116.23
Line.S_1001708-DA1,     251.18,   -93.41,    251.239,   146.60,    251.291,    26.41,          0,     0.00,   0.779882,   -59.95,     251.18,    86.59,    251.239,   -33.40,    251.291,  -153.59,          0,     0.00,   0.779882,   120.05
Line.S_1001708-DA2,     251.18,   -93.41,    251.239,   146.60,    251.291,    26.41,          0,     0.00,   0.779882,   -59.95,     251.18,    86.59,    251.239,   -33.40,    251.291,  -153.59,          0,     0.00,   0.779882,   120.05
Line.S_1001708-DA3,     251.18,   -93.41,    251.239,   146.60,    251.291,    26.41,          0,     0.00,   0.779882,   -59.95,     251.18,    86.59,    251.239,   -33.40,    251.291,  -153.59,          0,     0.00,   0.779882,   120.05
Line.S_1001345-DA1,    50.3745,   -94.14,    50.3782,   145.91,    50.3869,    25.80,          0,     0.00,  0.0779337,   -85.99,    50.3745,    85.86,    50.3782,   -34.09,    50.3869,  -154.20,          0,     0.00,  0.0779337,    94.01
Line.S_1001345-DA2,    50.3745,   -94.14,    50.3782,   145.91,    50.3869,    25.80,          0,     0.00,  0.0779337,   -85.99,    50.3745,    85.86,    50.3782,   -34.09,    50.3869,  -154.20,          0,     0.00,  0.0779337,    94.01
Line.S_1001345-DA3,    50.3745,   -94.14,    50.3782,   145.91,    50.3869,    25.80,          0,     0.00,  0.0779337,   -85.99,    50.3745,    85.86,    50.3782,   -34.09,    50.3869,  -154.20,          0,     0.00,  0.0779337,    94.01
Line.S_1000933-DA1,    10.0802,   -94.32,    10.0805,   145.74,    10.0821,    25.65,          0,     0.00,    0.01319,  -100.40,    10.0802,    85.68,    10.0806,   -34.26,    10.0821,  -154.35,          0,     0.00,    0.01319,    79.60
Line.S_1000933-DA2,    10.0802,   -94.32,    10.0805,   145.74,    10.0821,    25.65,          0,     0.00,    0.01319,  -100.40,    10.0802,    85.68,    10.0806,   -34.26,    10.0821,  -154.35,          0,     0.00,    0.01319,    79.60
Line.S_1000933-DA3,    10.0802,   -94.32,    10.0805,   145.74,    10.0821,    25.65,          0,     0.00,    0.01319,  -100.40,    10.0802,    85.68,    10.0806,   -34.26,    10.0821,  -154.35,          0,     0.00,    0.01319,    79.60
Line.S_1000933-DA4,    10.0802,   -94.32,    10.0805,   145.74,    10.0821,    25.65,          0,     0.00,    0.01319,  -100.40,    10.0802,    85.68,    10.0806,   -34.26,    10.0821,  -154.35,          0,     0.00,    0.01319,    79.60
Line.S_1000933-DA5,    10.0802,   -94.32,    10.0805,   145.74,    10.0821,    25.65,          0,     0.00,    0.01319,  -100.40,    10.0802,    85.68,    10.0806,   -34.26,    10.0821,  -154.35,          0,     0.00,    0.01319,    79.60
Line.S_1000933-DA6,    10.0802,   -94.32,    10.0805,   145.74,    10.0821,    25.65,          0,     0.00,    0.01319,  -100.40,    10.0802,    85.68,    10.0806,   -34.26,    10.0821,  -154.35,          0,     0.00,    0.01319,    79.60
Line.S_1000933-DA7,    10.0802,   -94.32,    10.0805,   145.74,    10.0821,    25.65,          0,     0.00,    0.01319,  -100.40,    10.0802,    85.68,    10.0806,   -34.26,    10.0821,  -154.35,          0,     0.00,    0.01319,    79.60
Line.S_1000933-DA8,    10.0802,   -94.32,    10.0805,   145.74,    10.0821,    25.65,          0,     0.00,    0.01319,  -100.40,    10.0802,    85.68,    10.0806,   -34.26,    10.0821,  -154.35,          0,     0.00,    0.01319,    79.60
Line.S_1000933-DA9,    10.0802,   -94.32,    10.0805,   145.74,    10.0821,    25.65,          0,     0.00,    0.01319,  -100.40,    10.0802,    85.68,    10.0806,   -34.26,    10.0821,  -154.35,          0,     0.00,    0.01319,    79.60
Line.S_1000933-DA10,    10.0802,   -94.32,    10.0805,   145.74,    10.0821,    25.65,          0,     0.00,    0.01319,  -100.40,    10.0802,    85.68,    10.0806,   -34.26,    10.0821,  -154.35,          0,     0.00,    0.01319,    79.60
...